241
Nanome Inc. SDF Saver. Edited/Viewed in Nanome version 1.23.4 Edited 2022-06-07

  0  0  0     0  0            999 V3000
M  V30 BEGIN CTAB
M  V30 COUNTS 12 12 0 0 0
M  V30 BEGIN ATOM
M  V30 1 C -1.2131 -0.6884 0 0 
M  V30 2 C -1.2028 0.7064 0.0001 0 
M  V30 3 C -0.0103 -1.3948 0 0 
M  V30 4 C 0.0104 1.3948 -0.0001 0 
M  V30 5 C 1.2028 -0.7063 0 0 
M  V30 6 C 1.2131 0.6884 0 0 
M  V30 7 H -2.1577 -1.2244 0 0 
M  V30 8 H -2.1393 1.2564 0.0001 0 
M  V30 9 H -0.0184 -2.4809 -0.0001 0 
M  V30 10 H 0.0184 2.4808 0 0 
M  V30 11 H 2.1394 -1.2563 0.0001 0 
M  V30 12 H 2.1577 1.2245 0 0 
M  V30 END ATOM
M  V30 BEGIN BOND
M  V30 1 2 1 2
M  V30 2 1 1 3
M  V30 3 1 2 4
M  V30 4 2 3 5
M  V30 5 2 4 6
M  V30 6 1 5 6
M  V30 7 1 1 7
M  V30 8 1 2 8
M  V30 9 1 3 9
M  V30 10 1 4 10
M  V30 11 1 5 11
M  V30 12 1 6 12
M  V30 END BOND
M  V30 END CTAB
M  END
> <PUBCHEM_COMPOUND_CID>
241

> <PUBCHEM_CONFORMER_RMSD>
0.4

> <PUBCHEM_CONFORMER_DIVERSEORDER>
1

> <PUBCHEM_MMFF94_PARTIAL_CHARGES>
12
1 -0.15
10 0.15
11 0.15
12 0.15
2 -0.15
3 -0.15
4 -0.15
5 -0.15
6 -0.15
7 0.15
8 0.15
9 0.15

> <PUBCHEM_EFFECTIVE_ROTOR_COUNT>
0

> <PUBCHEM_PHARMACOPHORE_FEATURES>
1
6 1 2 3 4 5 6 rings

> <PUBCHEM_HEAVY_ATOM_COUNT>
6

> <PUBCHEM_ATOM_DEF_STEREO_COUNT>
0

> <PUBCHEM_ATOM_UDEF_STEREO_COUNT>
0

> <PUBCHEM_BOND_DEF_STEREO_COUNT>
0

> <PUBCHEM_BOND_UDEF_STEREO_COUNT>
0

> <PUBCHEM_ISOTOPIC_ATOM_COUNT>
0

> <PUBCHEM_COMPONENT_COUNT>
1

> <PUBCHEM_CACTVS_TAUTO_COUNT>
1

> <PUBCHEM_CONFORMER_ID>
000000F100000001

> <PUBCHEM_MMFF94_ENERGY>
13.148

> <PUBCHEM_FEATURE_SELFOVERLAP>
5.074

> <PUBCHEM_SHAPE_FINGERPRINT>
16714656 1 18123201108121732318
20096714 4 18339082562313515547
21015797 1 9222644709913001990
21040471 1 18194402190896164549

> <PUBCHEM_SHAPE_MULTIPOLES>
123.48
1.59
1.59
0.62
0
0
0
0
0
0
0
0
0
0

> <PUBCHEM_SHAPE_SELFOVERLAP>
251.998

> <PUBCHEM_SHAPE_VOLUME>
67.5

> <PUBCHEM_COORDINATE_TYPE>
2
5
10

> <NAME>
241
> <Index>
0
$$$$
